Version 4
SHEET 1 880 680
WIRE -128 -304 -240 -304
WIRE 32 -304 -128 -304
WIRE 224 -304 32 -304
WIRE 384 -304 224 -304
WIRE 480 -304 384 -304
WIRE -128 -192 -128 -304
WIRE 32 -192 32 -304
WIRE 224 -192 224 -304
WIRE 384 -192 384 -304
WIRE -128 32 -128 -112
WIRE 384 32 384 -112
WIRE 32 80 32 -112
WIRE 32 80 -64 80
WIRE 224 80 224 -112
WIRE 320 80 224 80
WIRE -128 208 -128 128
WIRE -128 208 -240 208
WIRE 128 208 -128 208
WIRE 384 208 384 128
WIRE 384 208 128 208
WIRE 480 208 384 208
WIRE 128 240 128 208
FLAG 128 240 0
FLAG 0 0 0
SYMBOL npn -64 32 M0
SYMATTR InstName Q1
SYMATTR Value 2N3904
SYMBOL npn 320 32 R0
SYMATTR InstName Q2
SYMATTR Value 2N3904
SYMBOL res -144 -208 R0
SYMATTR InstName R1
SYMATTR Value 680
SYMATTR SpiceLine tol=5 pwr=0.25
SYMBOL res 16 -208 R0
SYMATTR InstName R2
SYMATTR Value 1000
SYMATTR SpiceLine tol=5 pwr=0.25
SYMBOL res 208 -208 R0
SYMATTR InstName R3
SYMATTR Value 1000
SYMATTR SpiceLine tol=5 pwr=0.25
SYMBOL res 368 -208 R0
SYMATTR InstName R4
SYMATTR Value 680
SYMATTR SpiceLine tol=5 pwr=0.25
